LAMMPS (22 Jul 2025 - Development - patch_22Jul2025-28-geac4a44fc3)
units real
atom_style full
boundary p p p

pair_style lj/cut/coul/cut 12.0

read_data lammps/s1.data
Reading data file ...
  triclinic box = (0 0 0) to (17.918025 17.918025 17.918025) with tilt (1.0971626e-15 1.0971626e-15 1.0971626e-15)
  reading atoms ...
  12 atoms
  reading velocities ...
  12 velocities
Finding 1-2 1-3 1-4 neighbors ...
     0 = max # of 1-2 neighbors
     0 = max # of 1-3 neighbors
     0 = max # of 1-4 neighbors
     1 = max # of special neighbors

neighbor 2.0 bin
neigh_modify delay 5 every 1

velocity all create 300.0 12 dist gaussian
group all type 1 2
12 atoms in group all
thermo 100
thermo_style custom step temp etotal press

dump xyz all xyz 100 out.xyz

fix 1 all nvt temp 300.0 300.0 100.0

timestep 0.1
run 10000
Generated 1 of 1 mixed pair_coeff terms from geometric mixing rule
Step          Temp          TotEng         Press
0   300            195062.67      9337925.5
Averages over the last 51 of 101 rows, steps 5000 to 10000:
Temp TotEng Press
281.576 -179.109 -9.08059
Loop time of 0.0169643 on 1 procs for 10000 steps with 12 atoms
